* XREF SPICE	Fri Feb  1 16:07:51 2019	nand
* icv_netlist Version RHEL64 K-2015.12-3.3052145 2015/12/17

* Top of hierarchy  cell=nand
.subckt nand VSS OUT VDD A B
M_MM2 OUT A net13 VSS n12  l=1e-07 w=2.5e-07 nf=1
M_MM3 net13 B VSS VSS n12  l=1e-07 w=2.5e-07 nf=1
M_MM0 OUT A VDD VDD p12  l=1e-07 w=5e-07 nf=1
M_MM1 OUT B VDD VDD p12  l=1e-07 w=5e-07 nf=1
.ends nand
