* XREF SPICE	Thu Jan 31 19:33:49 2019	inverter
* icv_netlist Version RHEL64 K-2015.12-3.3052145 2015/12/17

* Top of hierarchy  cell=inverter
.subckt inverter VDD VOUT VIN VSS
M_MM0 VOUT VIN VSS VSS n12  l=2e-07 w=2.5e-07 nf=1
M_MM1 VOUT VIN VDD VDD p12  l=2e-07 w=5e-07 nf=1
.ends inverter
